data/rte6515.xiidm
<?xml version="1.0" encoding="UTF-8"?>
<iidm:network xmlns:iidm="http://www.powsybl.org/schema/iidm/1_12" xmlns:slt="http://www.powsybl.org/schema/iidm/ext/slack_terminal/1_5" id="case6515rte" caseDate="2025-06-16T17:05:47.715+02:00" forecastDistance="0" sourceFormat="MATPOWER" minimumValidationLevel="STEADY_STATE_HYPOTHESIS">
    <iidm:substation id="SUB-1">
        <iidm:voltageLevel id="VL-1" nominalV="1.0" lowVoltageLimit="0.888889" highVoltageLimit="1.0" topologyKind="BUS_BREAKER">
            <iidm:busBreakerTopology>
                <iidm:bus id="BUS-1" v="0.992673125" angle="-12.8471377"/>
            </iidm:busBreakerTopology>
        </iidm:voltageLevel>
    </iidm:substation>
    <iidm:substation id="SUB-2">
        <iidm:voltageLevel id="VL-2" nominalV="1.0" lowVoltageLimit="0.936508" highVoltageLimit="1.06349" topologyKind="BUS_BREAKER">
            <iidm:busBreakerTopology>
                <iidm:bus id="BUS-2" v="1.02546105" angle="-9.79090947"/>
            </iidm:busBreakerTopology>
        </iidm:voltageLevel>
    </iidm:substation>
    <iidm:substation id="SUB-3">
        <iidm:voltageLevel id="VL-3" nominalV="1.0" lowVoltageLimit="0.952381" highVoltageLimit="1.07937" topologyKind="BUS_BREAKER">
            <iidm:busBreakerTopology>
                <iidm:bus id="BUS-3" v="1.00864353" angle="-17.1895145"/>
            </iidm:busBreakerTopology>
            <iidm:load id="LOAD-3" loadType="UNDEFINED" p0="14.8" q0="3.8" bus="BUS-3" connectableBus="BUS-3"/>
        </iidm:voltageLevel>
    </iidm:substation>
    <iidm:substation id="SUB-4">
        <iidm:voltageLevel id="VL-4" nominalV="1.0" lowVoltageLimit="0.933333" highVoltageLimit="1.08889" topologyKind="BUS_BREAKER">
            <iidm:busBreakerTopology>
                <iidm:bus id="BUS-4" v="1.02422997" angle="-30.343276"/>
            </iidm:busBreakerTopology>
            <iidm:generator id="GEN-4" energySource="OTHER" minP="0.0" maxP="12.0" ratedS="100.0" voltageRegulatorOn="true" targetP="0.0" targetV="1.025" targetQ="0.0" connectableBus="BUS-4">
                <iidm:minMaxReactiveLimits minQ="0.0" maxQ="0.0"/>
            </iidm:generator>
            <iidm:generator id="GEN-4#0" energySource="OTHER" minP="0.0" maxP="10.0" ratedS="100.0" voltageRegulatorOn="true" targetP="0.0" targetV="1.025" targetQ="0.0" connectableBus="BUS-4">
                <iidm:minMaxReactiveLimits minQ="0.0" maxQ="0.0"/>
            </iidm:generator>
            <iidm:load id="LOAD-4" loadType="UNDEFINED" p0="49.6" q0="2.8" bus="BUS-4" connectableBus="BUS-4"/>
        </iidm:voltageLevel>
    </iidm:substation>
    <iidm:substation id="SUB-5">
        <iidm:voltageLevel id="VL-5" nominalV="1.0" lowVoltageLimit="0.952381" highVoltageLimit="1.06349" topologyKind="BUS_BREAKER">
            <iidm:busBreakerTopology>
                <iidm:bus id="BUS-5" v="1.00903343" angle="-61.8409771"/>
            </iidm:busBreakerTopology>
            <iidm:generator id="GEN-5" energySource="OTHER" minP="0.0" maxP="9.1" ratedS="100.0" voltageRegulatorOn="true" targetP="0.0" targetV="1.016" targetQ="0.0" connectableBus="BUS-5">
                <iidm:minMaxReactiveLimits minQ="0.0" maxQ="0.0"/>
            </iidm:generator>
            <iidm:load id="LOAD-5" loadType="UNDEFINED" p0="12.9" q0="0.9" bus="BUS-5" connectableBus="BUS-5"/>
        </iidm:voltageLevel>
    </iidm:substation>
    <iidm:substation id="SUB-6">
        <iidm:voltageLevel id="VL-6" nominalV="1.0" lowVoltageLimit="0.920635" highVoltageLimit="1.07937" topologyKind="BUS_BREAKER">
            <iidm:busBreakerTopology>
                <iidm:bus id="BUS-6" v="1.03039688" angle="-21.8739211"/>
            </iidm:busBreakerTopology>
            <iidm:load id="LOAD-6" loadType="UNDEFINED" p0="13.0" q0="5.3" bus="BUS-6" connectableBus="BUS-6"/>
        </iidm:voltageLevel>
    </iidm:substation>
    <iidm:substation id="SUB-7">
        <iidm:voltageLevel id="VL-7" nominalV="1.0" lowVoltageLimit="0.920635" highVoltageLimit="1.07937" topologyKind="BUS_BREAKER">
            <iidm:busBreakerTopology>
                <iidm:bus id="BUS-7" v="1.04823977" angle="-23.3329536"/>
            </iidm:busBreakerTopology>
            <iidm:load id="LOAD-7" loadType="UNDEFINED" p0="2.3" q0="0.2" bus="BUS-7" connectableBus="BUS-7"/>
        </iidm:voltageLevel>
    </iidm:substation>
    <iidm:substation id="SUB-8">
        <iidm:voltageLevel id="VL-8" nominalV="1.0" lowVoltageLimit="0.888889" highVoltageLimit="1.08889" topologyKind="BUS_BREAKER">
            <iidm:busBreakerTopology>
                <iidm:bus id="BUS-8" v="1.04175444" angle="-22.659297"/>
            </iidm:busBreakerTopology>
            <iidm:load id="LOAD-8" loadType="UNDEFINED" p0="15.8" q0="-0.3" bus="BUS-8" connectableBus="BUS-8"/>
        </iidm:voltageLevel>
    </iidm:substation>
    <iidm:substation id="SUB-9">
        <iidm:voltageLevel id="VL-9" nominalV="1.0" lowVoltageLimit="0.936508" highVoltageLimit="1.06349" topologyKind="BUS_BREAKER">
            <iidm:busBreakerTopology>
                <iidm:bus id="BUS-9" v="1.04155579" angle="-20.2679216"/>
            </iidm:busBreakerTopology>
            <iidm:load id="LOAD-9" loadType="UNDEFINED" p0="14.9" q0="0.0" bus="BUS-9" connectableBus="BUS-9"/>
        </iidm:voltageLevel>
    </iidm:substation>
    <iidm:substation id="SUB-10">
        <iidm:voltageLevel id="VL-10" nominalV="1.0" lowVoltageLimit="0.922222" highVoltageLimit="1.07778" topologyKind="BUS_BREAKER">
            <iidm:busBreakerTopology>
                <iidm:bus id="BUS-10" v="1.0132689" angle="-29.1463296"/>
            </iidm:busBreakerTopology>
        </iidm:voltageLevel>
    </iidm:substation>
    <iidm:substation id="SUB-11">
        <iidm:voltageLevel id="VL-11" nominalV="1.0" lowVoltageLimit="0.922222" highVoltageLimit="1.07778" topologyKind="BUS_BREAKER">
            <iidm:busBreakerTopology>
                <iidm:bus id="BUS-11" v="1.01326868" angle="-29.1463272"/>
            </iidm:busBreakerTopology>
            <iidm:generator id="GEN-11" energySource="OTHER" minP="0.0" maxP="28.0" ratedS="100.0" voltageRegulatorOn="true" targetP="0.05" targetV="1.014" targetQ="0.0" bus="BUS-11" connectableBus="BUS-11">
                <iidm:minMaxReactiveLimits minQ="0.0" maxQ="0.0"/>
            </iidm:generator>
            <iidm:generator id="GEN-11#0" energySource="OTHER" minP="0.0" maxP="18.0" ratedS="100.0" voltageRegulatorOn="true" targetP="0.0" targetV="1.014" targetQ="0.0" connectableBus="BUS-11">
                <iidm:minMaxReactiveLimits minQ="0.0" maxQ="0.0"/>
            </iidm:generator>
            <iidm:load id="LOAD-11" loadType="UNDEFINED" p0="33.2" q0="4.9" bus="BUS-11" connectableBus="BUS-11"/>
        </iidm:voltageLevel>
    </iidm:substation>
    <iidm:substation id="SUB-12">
        <iidm:voltageLevel id="VL-12" nominalV="1.0" lowVoltageLimit="0.952381" highVoltageLimit="1.07937" topologyKind="BUS_BREAKER">
            <iidm:busBreakerTopology>
                <iidm:bus id="BUS-12" v="1.01492907" angle="-3.69736777"/>
            </iidm:busBreakerTopology>
        </iidm:voltageLevel>
    </iidm:substation>
    <iidm:substation id="SUB-13">
        <iidm:voltageLevel id="VL-13" nominalV="1.0" lowVoltageLimit="1.05271" highVoltageLimit="1.10263" topologyKind="BUS_BREAKER">
            <iidm:busBreakerTopology>
                <iidm:bus id="BUS-13" v="1.06112977" angle="-5.52856096"/>
            </iidm:busBreakerTopology>
        </iidm:voltageLevel>
    </iidm:substation>
    <iidm:substation id="SUB-14">
        <iidm:voltageLevel id="VL-14" nominalV="1.0" lowVoltageLimit="0.977778" highVoltageLimit="1.07778" topologyKind="BUS_BREAKER">
            <iidm:busBreakerTopology>
                <iidm:bus id="BUS-14" v="1.05559114" angle="-38.6865005"/>
            </iidm:busBreakerTopology>
            <iidm:load id="LOAD-14" loadType="UNDEFINED" p0="63.2" q0="13.3" bus="BUS-14" connectableBus="BUS-14"/>
            <iidm:shunt id="SHUNT-14" sectionCount="1" voltageRegulatorOn="false" bus="BUS-14" connectableBus="BUS-14">
                <iidm:shuntLinearModel bPerSection="30.4" maximumSectionCount="1"/>
            </iidm:shunt>
        </iidm:voltageLevel>
    </iidm:substation>
    <iidm:substation id="SUB-15">
        <iidm:voltageLevel id="VL-15" nominalV="1.0" lowVoltageLimit="0.920635" highVoltageLimit="1.07937" topologyKind="BUS_BREAKER">
            <iidm:busBreakerTopology>
                <iidm:bus id="BUS-15" v="1.02066892" angle="-25.2263375"/>
            </iidm:busBreakerTopology>
        </iidm:voltageLevel>
    </iidm:substation>
    <iidm:substation id="SUB-16">
        <iidm:voltageLevel id="VL-16" nominalV="1.0" lowVoltageLimit="0.920635" highVoltageLimit="1.07937" topologyKind="BUS_BREAKER">
            <iidm:busBreakerTopology>
                <iidm:bus id="BUS-16" v="1.03089962" angle="-28.9019546"/>
            </iidm:busBreakerTopology>
            <iidm:load id="LOAD-16" loadType="UNDEFINED" p0="13.9" q0="1.9" bus="BUS-16" connectableBus="BUS-16"/>
        </iidm:voltageLevel>
    </iidm:substation>
    <iidm:substation id="SUB-17">
        <iidm:voltageLevel id="VL-17" nominalV="1.0" lowVoltageLimit="0.977778" highVoltageLimit="1.06667" topologyKind="BUS_BREAKER">
            <iidm:busBreakerTopology>
                <iidm:bus id="BUS-17" v="1.04190862" angle="-35.5001147"/>
            </iidm:busBreakerTopology>
            <iidm:generator id="GEN-17" energySource="OTHER" minP="0.0" maxP="8.2" ratedS="100.0" voltageRegulatorOn="true" targetP="0.0" targetV="1.045" targetQ="0.0" connectableBus="BUS-17">
                <iidm:minMaxReactiveLimits minQ="0.0" maxQ="0.0"/>
            </iidm:generator>
            <iidm:load id="LOAD-17" loadType="UNDEFINED" p0="10.9" q0="0.1" bus="BUS-17" connectableBus="BUS-17"/>
        </iidm:voltageLevel>
    </iidm:substation>
    <iidm:substation id="SUB-18">
        <iidm:voltageLevel id="VL-18" nominalV="1.0" lowVoltageLimit="0.888889" highVoltageLimit="1.0" topologyKind="BUS_BREAKER">
            <iidm:busBreakerTopology>
                <iidm:bus id="BUS-18" v="0.938816943" angle="-6.53938592"/>
            </iidm:busBreakerTopology>
        </iidm:voltageLevel>
    </iidm:substation>
    <iidm:substation id="SUB-19">
        <iidm:voltageLevel id="VL-19" nominalV="1.0" lowVoltageLimit="0.936508" highVoltageLimit="1.06349" topologyKind="BUS_BREAKER">
            <iidm:busBreakerTopology>
                <iidm:bus id="BUS-19" v="1.01915832" angle="-24.0844174"/>
            </iidm:busBreakerTopology>
            <iidm:generator id="GEN-19" energySource="OTHER" minP="0.0" maxP="1.2" ratedS="100.0" voltageRegulatorOn="true" targetP="0.0" targetV="1.02" targetQ="0.0" connectableBus="BUS-19">
                <iidm:minMaxReactiveLimits minQ="0.0" maxQ="0.0"/>
            </iidm:generator>
            <iidm:load id="LOAD-19" loadType="UNDEFINED" p0="1.0" q0="0.0" bus="BUS-19" connectableBus="BUS-19"/>
        </iidm:voltageLevel>
    </iidm:substation>
    <iidm:substation id="SUB-20">
        <iidm:voltageLevel id="VL-20" nominalV="1.0" lowVoltageLimit="0.888889" highVoltageLimit="1.0" topologyKind="BUS_BREAKER">
            <iidm:busBreakerTopology>
                <iidm:bus id="BUS-20" v="0.939550393" angle="-6.5786432"/>
            </iidm:busBreakerTopology>
            <iidm:load id="LOAD-20" loadType="UNDEFINED" p0="5.6" q0="-18.0" bus="BUS-20" connectableBus="BUS-20"/>
        </iidm:voltageLevel>
    </iidm:substation>
    <iidm:substation id="SUB-21">
        <iidm:voltageLevel id="VL-21" nominalV="1.0" lowVoltageLimit="0.977778" highVoltageLimit="1.06667" topologyKind="BUS_BREAKER">
            <iidm:busBreakerTopology>
                <iidm:bus id="BUS-21" v="1.02352369" angle="-23.3128349"/>
            </iidm:busBreakerTopology>
            <iidm:load id="LOAD-21" loadType="UNDEFINED" p0="7.6" q0="-1.6" bus="BUS-21" connectableBus="BUS-21"/>
        </iidm:voltageLevel>
    </iidm:substation>
    <iidm:substation id="SUB-22">
        <iidm:voltageLevel id="VL-22" nominalV="1.0" lowVoltageLimit="0.952381" highVoltageLimit="1.07937" topologyKind="BUS_BREAKER">
            <iidm:busBreakerTopology>
                <iidm:bus id="BUS-22" v="1.00657527" angle="-18.245777"/>
            </iidm:busBreakerTopology>
            <iidm:generator id="GEN-22" energySource="OTHER" minP="0.0" maxP="10.0" ratedS="100.0" voltageRegulatorOn="true" targetP="0.0" targetV="1.007" targetQ="0.0" connectableBus="BUS-22">
                <iidm:minMaxReactiveLimits minQ="0.0" maxQ="0.0"/>
            </iidm:generator>
            <iidm:load id="LOAD-22" loadType="UNDEFINED" p0="18.5" q0="1.0" bus="BUS-22" connectableBus="BUS-22"/>
        </iidm:voltageLevel>
    </iidm:substation>
    <iidm:substation id="SUB-23">
        <iidm:voltageLevel id="VL-23" nominalV="1.0" lowVoltageLimit="0.936508" highVoltageLimit="1.06349" topologyKind="BUS_BREAKER">
            <iidm:busBreakerTopology>
                <iidm:bus id="BUS-23" v="1.01974649" angle="-11.4972658"/>
            </iidm:busBreakerTopology>
            <iidm:load id="LOAD-23" loadType="UNDEFINED" p0="22.4" q0="2.2" bus="BUS-23" connectableBus="BUS-23"/>
        </iidm:voltageLevel>
    </iidm:substation>
    <iidm:substation id="SUB-24">
        <iidm:voltageLevel id="VL-24" nominalV="1.0" lowVoltageLimit="0.955556" highVoltageLimit="1.11111" topologyKind="BUS_BREAKER">
            <iidm:busBreakerTopology>
                <iidm:bus id="BUS-24" v="1.02620358" angle="-28.8977254"/>
            </iidm:busBreakerTopology>
            <iidm:generator id="GEN-24" energySource="OTHER" minP="0.0" maxP="16.1" ratedS="100.0" voltageRegulatorOn="true" targetP="0.0" targetV="1.027" targetQ="0.0" connectableBus="BUS-24">
                <iidm:minMaxReactiveLimits minQ="0.0" maxQ="0.0"/>
            </iidm:generator>
            <iidm:generator id="GEN-24#0" energySource="OTHER" minP="0.0" maxP="35.5" ratedS="100.0" voltageRegulatorOn="true" targetP="0.0" targetV="1.027" targetQ="0.0" connectableBus="BUS-24">
                <iidm:minMaxReactiveLimits minQ="0.0" maxQ="0.0"/>
            </iidm:generator>
            <iidm:load id="LOAD-24" loadType="UNDEFINED" p0="17.0" q0="-1.5" bus="BUS-24" connectableBus="BUS-24"/>
        </iidm:voltageLevel>
    </iidm:substation>
    <iidm:substation id="SUB-25">
        <iidm:voltageLevel id="VL-25" nominalV="1.0" lowVoltageLimit="0.944444" highVoltageLimit="1.1" topologyKind="BUS_BREAKER">
            <iidm:busBreakerTopology>
                <iidm:bus id="BUS-25" v="1.06210876" angle="-24.9347957"/>
            </iidm:busBreakerTopology>
            <iidm:generator id="GEN-25" energySource="OTHER" minP="0.0" maxP="36.0" ratedS="100.0" voltageRegulatorOn="true" targetP="0.22" targetV="1.064" targetQ="0.0" bus="BUS-25" connectableBus="BUS-25">
                <iidm:minMaxReactiveLimits minQ="0.0" maxQ="0.0"/>
            </iidm:generator>
            <iidm:generator id="GEN-25#0" energySource="OTHER" minP="0.0" maxP="27.2" ratedS="100.0" voltageRegulatorOn="true" targetP="0.0" targetV="1.064" targetQ="0.0" connectableBus="BUS-25">
                <iidm:minMaxReactiveLimits minQ="0.0" maxQ="0.0"/>
            </iidm:generator>
            <iidm:load id="LOAD-25" loadType="UNDEFINED" p0="54.7" q0="-1.1" bus="BUS-25" connectableBus="BUS-25"/>
        </iidm:voltageLevel>
    </iidm:substation>
    <iidm:substation id="SUB-26">
        <iidm:voltageLevel id="VL-26" nominalV="1.0" lowVoltageLimit="1.00444" highVoltageLimit="1.06667" topologyKind="BUS_BREAKER">
            <iidm:busBreakerTopology>
                <iidm:bus id="BUS-26" v="1.01923142" angle="-30.5619937"/>
                <iidm:bus id="BUS-27" v="1.05630842" angle="-25.6901089"/>
            </iidm:busBreakerTopology>
            <iidm:load id="LOAD-26" loadType="UNDEFINED" p0="15.1" q0="10.6" bus="BUS-26" connectableBus="BUS-26"/>
        </iidm:voltageLevel>
        <iidm:twoWindingsTransformer id="TWT-26-27" r="3.18E-5" x="0.00114765" g="0.0" b="0.0" ratedU1="0.976558" ratedU2="1.0" voltageLevelId1="VL-26" bus1="BUS-26" connectableBus1="BUS-26" voltageLevelId2="VL-26" bus2="BUS-27" connectableBus2="BUS-27" selectedOperationalLimitsGroupId1="DEFAULT" selectedOperationalLimitsGroupId2="DEFAULT">
            <iidm:operationalLimitsGroup1 id="DEFAULT">
                <iidm:apparentPowerLimits permanentLimit="302.0">
                    <iidm:temporaryLimit name="RateB" acceptableDuration="1200" value="302.0"/>
                    <iidm:temporaryLimit name="RateC" acceptableDuration="60" value="302.0"/>
                </iidm:apparentPowerLimits>
            </iidm:operationalLimitsGroup1>
            <iidm:operationalLimitsGroup2 id="DEFAULT">
                <iidm:apparentPowerLimits permanentLimit="302.0">
                    <iidm:temporaryLimit name="RateB" acceptableDuration="1200" value="302.0"/>
                    <iidm:temporaryLimit name="RateC" acceptableDuration="60" value="302.0"/>
                </iidm:apparentPowerLimits>
            </iidm:operationalLimitsGroup2>
        </iidm:twoWindingsTransformer>
        <iidm:twoWindingsTransformer id="TWT-26-27#0" r="3.062E-5" x="0.00115753" g="0.0" b="0.0" ratedU1="0.968992" ratedU2="1.0" voltageLevelId1="VL-26" bus1="BUS-26" connectableBus1="BUS-26" voltageLevelId2="VL-26" bus2="BUS-27" connectableBus2="BUS-27" selectedOperationalLimitsGroupId1="DEFAULT" selectedOperationalLimitsGroupId2="DEFAULT">
            <iidm:operationalLimitsGroup1 id="DEFAULT">
                <iidm:apparentPowerLimits permanentLimit="302.0">
                    <iidm:temporaryLimit name="RateB" acceptableDuration="1200" value="302.0"/>
                    <iidm:temporaryLimit name="RateC" acceptableDuration="60" value="302.0"/>
                </iidm:apparentPowerLimits>
            </iidm:operationalLimitsGroup1>
            <iidm:operationalLimitsGroup2 id="DEFAULT">
                <iidm:apparentPowerLimits permanentLimit="302.0">
                    <iidm:temporaryLimit name="RateB" acceptableDuration="1200" value="302.0"/>
                    <iidm:temporaryLimit name="RateC" acceptableDuration="60" value="302.0"/>
                </iidm:apparentPowerLimits>
            </iidm:operationalLimitsGroup2>
        </iidm:twoWindingsTransformer>
        <iidm:twoWindingsTransformer id="TWT-26-27#1" r="3.18E-5" x="0.0011792600000000001" g="0.0" b="0.0" ratedU1="0.967118" ratedU2="1.0" voltageLevelId1="VL-26" bus1="BUS-26" connectableBus1="BUS-26" voltageLevelId2="VL-26" bus2="BUS-27" connectableBus2="BUS-27" selectedOperationalLimitsGroupId1="DEFAULT" selectedOperationalLimitsGroupId2="DEFAULT">
            <iidm:operationalLimitsGroup1 id="DEFAULT">
                <iidm:apparentPowerLimits permanentLimit="302.0">
                    <iidm:temporaryLimit name="RateB" acceptableDuration="1200" value="302.0"/>
                    <iidm:temporaryLimit name="RateC" acceptableDuration="60" value="302.0"/>
                </iidm:apparentPowerLimits>
            </iidm:operationalLimitsGroup1>
            <iidm:operationalLimitsGroup2 id="DEFAULT">
                <iidm:apparentPowerLimits permanentLimit="302.0">
                    <iidm:temporaryLimit name="RateB" acceptableDuration="1200" value="302.0"/>
                    <iidm:temporaryLimit name="RateC" acceptableDuration="60" value="302.0"/>
                </iidm:apparentPowerLimits>
            </iidm:operationalLimitsGroup2>
        </iidm:twoWindingsTransformer>
    </iidm:substation>
    <iidm:substation id="SUB-28">
        <iidm:voltageLevel id="VL-28" nominalV="1.0" lowVoltageLimit="0.952381" highVoltageLimit="1.07937" topologyKind="BUS_BREAKER">
            <iidm:busBreakerTopology>
                <iidm:bus id="BUS-28" v="1.01919759" angle="-24.3820624"/>
            </iidm:busBreakerTopology>
            <iidm:load id="LOAD-28" loadType="UNDEFINED" p0="0.9" q0="-0.2" bus="BUS-28" connectableBus="BUS-28"/>
        </iidm:voltageLevel>
    </iidm:substation>
    <iidm:substation id="SUB-29">
        <iidm:voltageLevel id="VL-29" nominalV="1.0" lowVoltageLimit="0.968254" highVoltageLimit="1.06349" topologyKind="BUS_BREAKER">
            <iidm:busBreakerTopology>
                <iidm:bus id="BUS-29" v="0.992476874" angle="-26.274171"/>
            </iidm:busBreakerTopology>
            <iidm:load id="LOAD-29" loadType="UNDEFINED" p0="76.5" q0="9.4" bus="BUS-29" connectableBus="BUS-29"/>
        </iidm:voltageLevel>
    </iidm:substation>
    <iidm:substation id="SUB-30">
        <iidm:voltageLevel id="VL-30" nominalV="1.0" lowVoltageLimit="0.933333" highVoltageLimit="1.08889" topologyKind="BUS_BREAKER">
            <iidm:busBreakerTopology>
                <iidm:bus id="BUS-30" v="1.01607663" angle="-29.4588142"/>
            </iidm:busBreakerTopology>
            <iidm:load id="LOAD-30" loadType="UNDEFINED" p0="39.9" q0="3.5" bus="BUS-30" connectableBus="BUS-30"/>
        </iidm:voltageLevel>
    </iidm:substation>
    <iidm:substation id="SUB-31">
        <iidm:voltageLevel id="VL-31" nominalV="1.0" lowVoltageLimit="0.936508" highVoltageLimit="1.06349" topologyKind="BUS_BREAKER">
            <iidm:busBreakerTopology>
                <iidm:bus id="BUS-31" v="1.04325949" angle="-10.3722447"/>
                <iidm:bus id="BUS-32" v="1.0482513" angle="-5.17611119"/>
                <iidm:bus id="BUS-33" v="1.05862347" angle="-7.53647866"/>
                <iidm:bus id="BUS-34" v="1.05568981" angle="-6.87832327"/>
                <iidm:bus id="BUS-5899" v="1.05694342" angle="-7.86459055"/>
                <iidm:bus id="BUS-5923" v="1.05306156" angle="-7.04237839"/>
            </iidm:busBreakerTopology>
        </iidm:voltageLevel>
        <iidm:twoWindingsTransformer id="TWT-31-33" r="1.9750000000000002E-5" x="0.00126617" g="0.0" b="0.0" ratedU1="1.001002" ratedU2="1.0" voltageLevelId1="VL-31" bus1="BUS-31" connectableBus1="BUS-31" voltageLevelId2="VL-31" bus2="BUS-33" connectableBus2="BUS-33" selectedOperationalLimitsGroupId1="DEFAULT" selectedOperationalLimitsGroupId2="DEFAULT">
            <iidm:operationalLimitsGroup1 id="DEFAULT">
                <iidm:apparentPowerLimits permanentLimit="435.0">
                    <iidm:temporaryLimit name="RateB" acceptableDuration="1200" value="435.0"/>
                    <iidm:temporaryLimit name="RateC" acceptableDuration="60" value="435.0"/>
                </iidm:apparentPowerLimits>
            </iidm:operationalLimitsGroup1>
            <iidm:operationalLimitsGroup2 id="DEFAULT">
                <iidm:apparentPowerLimits permanentLimit="435.0">
                    <iidm:temporaryLimit name="RateB" acceptableDuration="1200" value="435.0"/>
                    <iidm:temporaryLimit name="RateC" acceptableDuration="60" value="435.0"/>
                </iidm:apparentPowerLimits>
            </iidm:operationalLimitsGroup2>
        </iidm:twoWindingsTransformer>
        <iidm:twoWindingsTransformer id="TWT-31-34" r="3.635E-5" x="0.00123062" g="0.0" b="0.0" ratedU1="0.976559" ratedU2="1.0" voltageLevelId1="VL-31" bus1="BUS-31" connectableBus1="BUS-31" voltageLevelId2="VL-31" bus2="BUS-34" connectableBus2="BUS-34" selectedOperationalLimitsGroupId1="DEFAULT" selectedOperationalLimitsGroupId2="DEFAULT">
            <iidm:operationalLimitsGroup1 id="DEFAULT">
                <iidm:apparentPowerLimits permanentLimit="446.0">
                    <iidm:temporaryLimit name="RateB" acceptableDuration="1200" value="446.0"/>
                    <iidm:temporaryLimit name="RateC" acceptableDuration="60" value="446.0"/>
                </iidm:apparentPowerLimits>
            </iidm:operationalLimitsGroup1>
            <iidm:operationalLimitsGroup2 id="DEFAULT">
                <iidm:apparentPowerLimits permanentLimit="446.0">
                    <iidm:temporaryLimit name="RateB" acceptableDuration="1200" value="446.0"/>
                    <iidm:temporaryLimit name="RateC" acceptableDuration="60" value="446.0"/>
                </iidm:apparentPowerLimits>
            </iidm:operationalLimitsGroup2>
        </iidm:twoWindingsTransformer>
        <iidm:twoWindingsTransformer id="TWT-32-33" r="3.5560000000000005E-5" x="0.00120296" g="0.0" b="0.0" ratedU1="0.983284" ratedU2="1.0" voltageLevelId1="VL-31" bus1="BUS-32" connectableBus1="BUS-32" voltageLevelId2="VL-31" bus2="BUS-33" connectableBus2="BUS-33"/>
        <iidm:twoWindingsTransformer id="TWT-33-5899" r="1.8000000000000001E-6" x="-6.163E-5" g="0.0" b="0.0" ratedU1="0.999001" ratedU2="1.0" voltageLevelId1="VL-31" bus1="BUS-33" connectableBus1="BUS-33" voltageLevelId2="VL-31" bus2="BUS-5899" connectableBus2="BUS-5899" selectedOperationalLimitsGroupId1="DEFAULT" selectedOperationalLimitsGroupId2="DEFAULT">
            <iidm:operationalLimitsGroup1 id="DEFAULT">
                <iidm:apparentPowerLimits permanentLimit="1186.0">
                    <iidm:temporaryLimit name="RateB" acceptableDuration="1200" value="1186.0"/>
                    <iidm:temporaryLimit name="RateC" acceptableDuration="60" value="1186.0"/>
                </iidm:apparentPowerLimits>
            </iidm:operationalLimitsGroup1>
            <iidm:operationalLimitsGroup2 id="DEFAULT">
                <iidm:apparentPowerLimits permanentLimit="1186.0">
                    <iidm:temporaryLimit name="RateB" acceptableDuration="1200" value="1186.0"/>
                    <iidm:temporaryLimit name="RateC" acceptableDuration="60" value="1186.0"/>
                </iidm:apparentPowerLimits>
            </iidm:operationalLimitsGroup2>
        </iidm:twoWindingsTransformer>
        <iidm:twoWindingsTransformer id="TWT-34-5923" r="1.8000000000000001E-6" x="-6.163E-5" g="0.0" b="0.0" ratedU1="0.999001" ratedU2="1.0" voltageLevelId1="VL-31" bus1="BUS-34" connectableBus1="BUS-34" voltageLevelId2="VL-31" bus2="BUS-5923" connectableBus2="BUS-5923" selectedOperationalLimitsGroupId1="DEFAULT" selectedOperationalLimitsGroupId2="DEFAULT">
            <iidm:operationalLimitsGroup1 id="DEFAULT">
                <iidm:apparentPowerLimits permanentLimit="1188.0">
                    <iidm:temporaryLimit name="RateB" acceptableDuration="1200" value="1188.0"/>
                    <iidm:temporaryLimit name="RateC" acceptableDuration="60" value="1188.0"/>
                </iidm:apparentPowerLimits>
            </iidm:operationalLimitsGroup1>
            <iidm:operationalLimitsGroup2 id="DEFAULT">
                <iidm:apparentPowerLimits permanentLimit="1188.0">
                    <iidm:temporaryLimit name="RateB" acceptableDuration="1200" value="1188.0"/>
                    <iidm:temporaryLimit name="RateC" acceptableDuration="60" value="1188.0"/>
                </iidm:apparentPowerLimits>
            </iidm:operationalLimitsGroup2>
        </iidm:twoWindingsTransformer>
    </iidm:substation>
    <iidm:substation id="SUB-35">
        <iidm:voltageLevel id="VL-35" nominalV="1.0" lowVoltageLimit="1.03947" highVoltageLimit="1.10526" topologyKind="BUS_BREAKER">
            <iidm:busBreakerTopology>
                <iidm:bus id="BUS-35" v="1.07212104" angle="-6.27267486"/>
            </iidm:busBreakerTopology>
        </iidm:voltageLevel>
    </iidm:substation>
    <iidm:substation id="SUB-36">
        <iidm:voltageLevel id="VL-36" nominalV="1.0" lowVoltageLimit="1.03947" highVoltageLimit="1.10526" topologyKind="BUS_BREAKER">
            <iidm:busBreakerTopology>
                <iidm:bus id="BUS-36" v="1.07555328" angle="-5.29121134"/>
            </iidm:busBreakerTopology>
        </iidm:voltageLevel>
    </iidm:substation>
    <iidm:substation id="SUB-37">
        <iidm:voltageLevel id="VL-37" nominalV="1.0" lowVoltageLimit="0.920635" highVoltageLimit="1.07937" topologyKind="BUS_BREAKER">
            <iidm:busBreakerTopology>
                <iidm:bus id="BUS-37" v="1.01345584" angle="-27.1537318"/>
            </iidm:busBreakerTopology>
            <iidm:load id="LOAD-37" loadType="UNDEFINED" p0="-2.7" q0="3.0" bus="BUS-37" connectableBus="BUS-37"/>
        </iidm:voltageLevel>
    </iidm:substation>
    <iidm:substation id="SUB-38">
        <iidm:voltageLevel id="VL-38" nominalV="1.0" lowVoltageLimit="0.936508" highVoltageLimit="1.09524" topologyKind="BUS_BREAKER">
            <iidm:busBreakerTopology>
                <iidm:bus id="BUS-38" v="1.02829838" angle="-25.8684243"/>
            </iidm:busBreakerTopology>
            <iidm:load id="LOAD-38" loadType="UNDEFINED" p0="5.0" q0="-1.0" bus="BUS-38" connectableBus="BUS-38"/>
        </iidm:voltageLevel>
    </iidm:substation>
    <iidm:substation id="SUB-39">
        <iidm:voltageLevel id="VL-39" nominalV="1.0" lowVoltageLimit="0.977778" highVoltageLimit="1.07778" topologyKind="BUS_BREAKER">
            <iidm:busBreakerTopology>
                <iidm:bus id="BUS-39" v="1.01570693" angle="-46.2156561"/>
            </iidm:busBreakerTopology>
            <iidm:load id="LOAD-39" loadType="UNDEFINED" p0="43.6" q0="-2.9" bus="BUS-39" connectableBus="BUS-39"/>
        </iidm:voltageLevel>
    </iidm:substation>
    <iidm:substation id="SUB-40">
        <iidm:voltageLevel id="VL-40" nominalV="1.0" lowVoltageLimit="0.977778" highVoltageLimit="1.07778" topologyKind="BUS_BREAKER">
            <iidm:busBreakerTopology>
                <iidm:bus id="BUS-40" v="1.04839394" angle="-36.8261167"/>
            </iidm:busBreakerTopology>
            <iidm:generator id="GEN-40" energySource="OTHER" minP="0.0" maxP="8.0" ratedS="100.0" voltageRegulatorOn="true" targetP="0.0" targetV="1.054" targetQ="0.0" connectableBus="BUS-40">
                <iidm:minMaxReactiveLimits minQ="0.0" maxQ="0.0"/>
            </iidm:generator>
            <iidm:load id="LOAD-40" loadType="UNDEFINED" p0="38.1" q0="4.1" bus="BUS-40" connectableBus="BUS-40"/>
        </iidm:voltageLevel>
    </iidm:substation>
    <iidm:substation id="SUB-41">
        <iidm:voltageLevel id="VL-41" nominalV="1.0" lowVoltageLimit="1.00444" highVoltageLimit="1.08889" topologyKind="BUS_BREAKER">
            <iidm:busBreakerTopology>
                <iidm:bus id="BUS-41" v="1.05970737" angle="-31.1653571"/>
            </iidm:busBreakerTopology>
        </iidm:voltageLevel>
    </iidm:substation>
    <iidm:substation id="SUB-42">
        <iidm:voltageLevel id="VL-42" nominalV="1.0" lowVoltageLimit="0.952381" highVoltageLimit="1.13099" topologyKind="BUS_BREAKER">
            <iidm:busBreakerTopology>
                <iidm:bus id="BUS-42" v="1.12316346" angle="0.171268459"/>
            </iidm:busBreakerTopology>
        </iidm:voltageLevel>
    </iidm:substation>
    <iidm:substation id="SUB-43">
        <iidm:voltageLevel id="VL-43" nominalV="1.0" lowVoltageLimit="0.977778" highVoltageLimit="1.07778" topologyKind="BUS_BREAKER">
            <iidm:busBreakerTopology>
                <iidm:bus id="BUS-43" v="1.03415253" angle="-33.026203"/>
            </iidm:busBreakerTopology>
            <iidm:load id="LOAD-43" loadType="UNDEFINED" p0="3.2" q0="2.7" bus="BUS-43" connectableBus="BUS-43"/>
        </iidm:voltageLevel>
    </iidm:substation>
    <iidm:substation id="SUB-44">
        <iidm:voltageLevel id="VL-44" nominalV="1.0" lowVoltageLimit="0.952381" highVoltageLimit="1.06349" topologyKind="BUS_BREAKER">
            <iidm:busBreakerTopology>
                <iidm:bus id="BUS-44" v="1.02400777" angle="-57.5229333"/>
            </iidm:busBreakerTopology>
            <iidm:load id="LOAD-44" loadType="UNDEFINED" p0="13.3" q0="0.1" bus="BUS-44" connectableBus="BUS-44"/>
        </iidm:voltageLevel>
    </iidm:substation>
    <iidm:substation id="SUB-45">
        <iidm:voltageLevel id="VL-45" nominalV="1.0" lowVoltageLimit="0.977778" highVoltageLimit="1.06667" topologyKind="BUS_BREAKER">
            <iidm:busBreakerTopology>
                <iidm:bus id="BUS-45" v="1.01408884" angle="-40.0298803"/>
            </iidm:busBreakerTopology>
            <iidm:load id="LOAD-45" loadType="UNDEFINED" p0="3.8" q0="1.6" bus="BUS-45" connectableBus="BUS-45"/>
        </iidm:voltageLevel>
    </iidm:substation>
    <iidm:substation id="SUB-46">
        <iidm:voltageLevel id="VL-46" nominalV="1.0" lowVoltageLimit="0.936508" highVoltageLimit="1.06349" topologyKind="BUS_BREAKER">
            <iidm:busBreakerTopology>
                <iidm:bus id="BUS-46" v="1.02956066" angle="-17.1027795"/>
            </iidm:busBreakerTopology>
        </iidm:voltageLevel>
    </iidm:substation>
    <iidm:substation id="SUB-47">
        <iidm:voltageLevel id="VL-47" nominalV="1.0" lowVoltageLimit="0.936508" highVoltageLimit="1.06349" topologyKind="BUS_BREAKER">
            <iidm:busBreakerTopology>
                <iidm:bus id="BUS-47" v="1.022" angle="-13.006679"/>
            </iidm:busBreakerTopology>
            <iidm:generator id="GEN-47" energySource="OTHER" minP="0.0" maxP="16.0" ratedS="100.0" voltageRegulatorOn="true" targetP="8.56" targetV="1.022" targetQ="-10.0" bus="BUS-47" connectableBus="BUS-47">
                <iidm:minMaxReactiveLimits minQ="-10.0" maxQ="9.5"/>
            </iidm:generator>
            <iidm:generator id="GEN-47#0" energySource="OTHER" minP="0.0" maxP="16.0" ratedS="100.0" voltageRegulatorOn="true" targetP="8.56" targetV="1.022" targetQ="-10.0" bus="BUS-47" connectableBus="BUS-47">
                <iidm:minMaxReactiveLimits minQ="-10.0" maxQ="9.5"/>
            </iidm:generator>
        </iidm:voltageLevel>
    </iidm:substation>
    <iidm:substation id="SUB-48">
        <iidm:voltageLevel id="VL-48" nominalV="1.0" lowVoltageLimit="0.922222" highVoltageLimit="1.07778" topologyKind="BUS_BREAKER">
            <iidm:busBreakerTopology>
                <iidm:bus id="BUS-48" v="1.01540389" angle="-30.4810602"/>
            </iidm:busBreakerTopology>
            <iidm:generator id="GEN-48" energySource="OTHER" minP="0.0" maxP="23.0" ratedS="100.0" voltageRegulatorOn="true" targetP="0.0" targetV="1.017" targetQ="0.0" connectableBus="BUS-48">
                <iidm:minMaxReactiveLimits minQ="0.0" maxQ="0.0"/>
            </iidm:generator>
            <iidm:generator id="GEN-48#0" energySource="OTHER" minP="0.0" maxP="24.0" ratedS="100.0" voltageRegulatorOn="true" targetP="0.0" targetV="1.017" targetQ="0.0" connectableBus="BUS-48">
                <iidm:minMaxReactiveLimits minQ="0.0" maxQ="0.0"/>
            </iidm:generator>
            <iidm:load id="LOAD-48" loadType="UNDEFINED" p0="40.4" q0="5.6" bus="BUS-48" connectableBus="BUS-48"/>
        </iidm:voltageLevel>
    </iidm:substation>
    <iidm:substation id="SUB-49">
        <iidm:voltageLevel id="VL-49" nominalV="1.0" lowVoltageLimit="0.936508" highVoltageLimit="1.06349" topologyKind="BUS_BREAKER">
            <iidm:busBreakerTopology>
                <iidm:bus id="BUS-49" v="1.0241398" angle="-18.4598697"/>
            </iidm:busBreakerTopology>
            <iidm:load id="LOAD-49" loadType="UNDEFINED" p0="9.8" q0="-1.9" bus="BUS-49" connectableBus="BUS-49"/>
        </iidm:voltageLevel>
    </iidm:substation>
    <iidm:substation id="SUB-50">
        <iidm:voltageLevel id="VL-50" nominalV="1.0" lowVoltageLimit="0.936508" highVoltageLimit="1.06927" topologyKind="BUS_BREAKER">
            <iidm:busBreakerTopology>
                <iidm:bus id="BUS-50" v="1.06676716" angle="-15.8911637"/>
                <iidm:bus id="BUS-51" v="1.05441957" angle="-10.919134"/>
            </iidm:busBreakerTopology>
        </iidm:voltageLevel>
        <iidm:twoWindingsTransformer id="TWT-50-51" r="3.16E-5" x="0.00125432" g="0.0" b="0.0" ratedU1="1.040584" ratedU2="1.0" voltageLevelId1="VL-50" bus1="BUS-50" connectableBus1="BUS-50" voltageLevelId2="VL-50" bus2="BUS-51" connectableBus2="BUS-51" selectedOperationalLimitsGroupId1="DEFAULT" selectedOperationalLimitsGroupId2="DEFAULT">
            <iidm:operationalLimitsGroup1 id="DEFAULT">
                <iidm:apparentPowerLimits permanentLimit="435.0">
                    <iidm:temporaryLimit name="RateB" acceptableDuration="1200" value="435.0"/>
                    <iidm:temporaryLimit name="RateC" acceptableDuration="60" value="435.0"/>
                </iidm:apparentPowerLimits>
            </iidm:operationalLimitsGroup1>
            <iidm:operationalLimitsGroup2 id="DEFAULT">
                <iidm:apparentPowerLimits permanentLimit="435.0">
                    <iidm:temporaryLimit name="RateB" acceptableDuration="1200" value="435.0"/>
                    <iidm:temporaryLimit name="RateC" acceptableDuration="60" value="435.0"/>
                </iidm:apparentPowerLimits>
            </iidm:operationalLimitsGroup2>
        </iidm:twoWindingsTransformer>
        <iidm:twoWindingsTransformer id="TWT-50-51#0" r="3.951E-5" x="0.0012523500000000002" g="0.0" b="0.0" ratedU1="1.026695" ratedU2="1.0" voltageLevelId1="VL-50" bus1="BUS-50" connectableBus1="BUS-50" voltageLevelId2="VL-50" bus2="BUS-51" connectableBus2="BUS-51" selectedOperationalLimitsGroupId1="DEFAULT" selectedOperationalLimitsGroupId2="DEFAULT">
            <iidm:operationalLimitsGroup1 id="DEFAULT">
                <iidm:apparentPowerLimits permanentLimit="435.0">
                    <iidm:temporaryLimit name="RateB" acceptableDuration="1200" value="435.0"/>
                    <iidm:temporaryLimit name="RateC" acceptableDuration="60" value="435.0"/>
                </iidm:apparentPowerLimits>
            </iidm:operationalLimitsGroup1>
            <iidm:operationalLimitsGroup2 id="DEFAULT">
                <iidm:apparentPowerLimits permanentLimit="435.0">
                    <iidm:temporaryLimit name="RateB" acceptableDuration="1200" value="435.0"/>
                    <iidm:temporaryLimit name="RateC" acceptableDuration="60" value="435.0"/>
                </iidm:apparentPowerLimits>
            </iidm:operationalLimitsGroup2>
        </iidm:twoWindingsTransformer>
        <iidm:twoWindingsTransformer id="TWT-50-51#1" r="3.16E-5" x="0.00125432" g="0.0" b="0.0" ratedU1="1.026695" ratedU2="1.0" voltageLevelId1="VL-50" bus1="BUS-50" connectableBus1="BUS-50" voltageLevelId2="VL-50" bus2="BUS-51" connectableBus2="BUS-51" selectedOperationalLimitsGroupId1="DEFAULT" selectedOperationalLimitsGroupId2="DEFAULT">
            <iidm:operationalLimitsGroup1 id="DEFAULT">
                <iidm:apparentPowerLimits permanentLimit="435.0">
                    <iidm:temporaryLimit name="RateB" acceptableDuration="1200" value="435.0"/>
                    <iidm:temporaryLimit name="RateC" acceptableDuration="60" value="435.0"/>
                </iidm:apparentPowerLimits>
            </iidm:operationalLimitsGroup1>
            <iidm:operationalLimitsGroup2 id="DEFAULT">
                <iidm:apparentPowerLimits permanentLimit="435.0">
                    <iidm:temporaryLimit name="RateB" acceptableDuration="1200" value="435.0"/>
                    <iidm:temporaryLimit name="RateC" acceptableDuration="60" value="435.0"/>
                </iidm:apparentPowerLimits>
            </iidm:operationalLimitsGroup2>
        </iidm:twoWindingsTransformer>
    </iidm:substation>
    <iidm:substation id="SUB-52">
        <iidm:voltageLevel id="VL-52" nominalV="1.0" lowVoltageLimit="0.977778" highVoltageLimit="1.06667" topologyKind="BUS_BREAKER">
            <iidm:busBreakerTopology>
                <iidm:bus id="BUS-52" v="1.02819015" angle="-42.0616957"/>
            </iidm:busBreakerTopology>
            <iidm:load id="LOAD-52" loadType="UNDEFINED" p0="6.5" q0="2.9" bus="BUS-52" connectableBus="BUS-52"/>
        </iidm:voltageLevel>
    </iidm:substation>
    <iidm:substation id="SUB-53">
        <iidm:voltageLevel id="VL-53" nominalV="1.0" lowVoltageLimit="0.952381" highVoltageLimit="1.04762" topologyKind="BUS_BREAKER">
            <iidm:busBreakerTopology>
                <iidm:bus id="BUS-53" v="0.990894456" angle="-33.1970632"/>
            </iidm:busBreakerTopology>
            <iidm:load id="LOAD-53" loadType="UNDEFINED" p0="0.0" q0="-1.3" bus="BUS-53" connectableBus="BUS-53"/>
        </iidm:voltageLevel>
    </iidm:substation>
    <iidm:substation id="SUB-54">
        <iidm:voltageLevel id="VL-54" nominalV="1.0" lowVoltageLimit="0.977778" highVoltageLimit="1.06667" topologyKind="BUS_BREAKER">
            <iidm:busBreakerTopology>
                <iidm:bus id="BUS-54" v="1.03197366" angle="-22.2968493"/>
            </iidm:busBreakerTopology>
            <iidm:load id="LOAD-54" loadType="UNDEFINED" p0="0.3" q0="-0.3" bus="BUS-54" connectableBus="BUS-54"/>
        </iidm:voltageLevel>
    </iidm:substation>
    <iidm:substation id="SUB-55">
        <iidm:voltageLevel id="VL-55" nominalV="1.0" lowVoltageLimit="1.00444" highVoltageLimit="1.08889" topologyKind="BUS_BREAKER">
            <iidm:busBreakerTopology>
                <iidm:bus id="BUS-55" v="1.06700842" angle="-34.6141552"/>
            </iidm:busBreakerTopology>
            <iidm:load id="LOAD-55" loadType="UNDEFINED" p0="50.9" q0="12.3" bus="BUS-55" connectableBus="BUS-55"/>
        </iidm:voltageLevel>
    </iidm:substation>
    <iidm:substation id="SUB-56">
        <iidm:voltageLevel id="VL-56" nominalV="1.0" lowVoltageLimit="1.00444" highVoltageLimit="1.08889" topologyKind="BUS_BREAKER">
            <iidm:busBreakerTopology>
                <iidm:bus id="BUS-56" v="1.05516756" angle="-29.8601461"/>
            </iidm:busBreakerTopology>
            <iidm:load id="LOAD-56" loadType="UNDEFINED" p0="75.5" q0="20.5" bus="BUS-56" connectableBus="BUS-56"/>
        </iidm:voltageLevel>
    </iidm:substation>
    <iidm:substation id="SUB-57">
        <iidm:voltageLevel id="VL-57" nominalV="1.0" lowVoltageLimit="0.920635" highVoltageLimit="1.07937" topologyKind="BUS_BREAKER">
            <iidm:busBreakerTopology>
                <iidm:bus id="BUS-57" v="1.058" angle="-20.1693954"/>
            </iidm:busBreakerTopology>
            <iidm:generator id="GEN-57" energySource="OTHER" minP="0.0" maxP="13.0" ratedS="100.0" voltageRegulatorOn="true" targetP="4.74" targetV="1.058" targetQ="1.0" bus="BUS-57" connectableBus="BUS-57">
                <iidm:minMaxReactiveLimits minQ="0.9" maxQ="1.0"/>
            </iidm:generator>
        </iidm:voltageLevel>
    </iidm:substation>
    <iidm:substation id="SUB-58">
        <iidm:voltageLevel id="VL-58" nominalV="1.0" lowVoltageLimit="1.00444" highVoltageLimit="1.08889" topologyKind="BUS_BREAKER">
            <iidm:busBreakerTopology>
                <iidm:bus id="BUS-58" v="1.06686281" angle="-34.6314288"/>
            </iidm:busBreakerTopology>
            <iidm:load id="LOAD-58" loadType="UNDEFINED" p0="154.0" q0="36.4" bus="BUS-58" connectableBus="BUS-58"/>
        </iidm:voltageLevel>
    </iidm:substation>
    <iidm:substation id="SUB-59">
        <iidm:voltageLevel id="VL-59" nominalV="1.0" lowVoltageLimit="0.952381" highVoltageLimit="1.07937" topologyKind="BUS_BREAKER">
            <iidm:busBreakerTopology>
                <iidm:bus id="BUS-59" v="1.02827769" angle="-15.3855852"/>
            </iidm:busBreakerTopology>
            <iidm:load id="LOAD-59" loadType="UNDEFINED" p0="5.0" q0="1.0" bus="BUS-59" connectableBus="BUS-59"/>
        </iidm:voltageLevel>
    </iidm:substation>
    <iidm:substation id="SUB-60">
        <iidm:voltageLevel id="VL-60" nominalV="1.0" lowVoltageLimit="0.952381" highVoltageLimit="1.07937" topologyKind="BUS_BREAKER">
            <iidm:busBreakerTopology>
                <iidm:bus id="BUS-60" v="1.0337691" angle="-9.9719196"/>
            </iidm:busBreakerTopology>
        </iidm:voltageLevel>
    </iidm:substation>
    <iidm:substation id="SUB-61">
        <iidm:voltageLevel id="VL-61" nominalV="1.0" lowVoltageLimit="0.952381" highVoltageLimit="1.07937" topologyKind="BUS_BREAKER">
            <iidm:busBreakerTopology>
                <iidm:bus id="BUS-61" v="1.03489853" angle="-11.5603392"/>
            </iidm:busBreakerTopology>
            <iidm:load id="LOAD-61" loadType="UNDEFINED" p0="46.3" q0="11.9" bus="BUS-61" connectableBus="BUS-61"/>
        </iidm:voltageLevel>
    </iidm:substation>
    <iidm:substation id="SUB-62">
        <iidm:voltageLevel id="VL-62" nominalV="1.0" lowVoltageLimit="0.952381" highVoltageLimit="1.07937" topologyKind="BUS_BREAKER">
            <iidm:busBreakerTopology>
                <iidm:bus id="BUS-62" v="1.02055977" angle="-9.93967295"/>
            </iidm:busBreakerTopology>
        </iidm:voltageLevel>
    </iidm:substation>
    <iidm:substation id="SUB-63">
        <iidm:voltageLevel id="VL-63" nominalV="1.0" lowVoltageLimit="0.952381" highVoltageLimit="1.07937" topologyKind="BUS_BREAKER">
            <iidm:busBreakerTopology>
                <iidm:bus id="BUS-63" v="1.0112534" angle="-4.26584306"/>
            </iidm:busBreakerTopology>
            <iidm:load id="LOAD-63" loadType="UNDEFINED" p0="16.8" q0="2.9" bus="BUS-63" connectableBus="BUS-63"/>
        </iidm:voltageLevel>
    </iidm:substation>
    <iidm:substation id="SUB-64">
        <iidm:voltageLevel id="VL-64" nominalV="1.0" lowVoltageLimit="0.888889" highVoltageLimit="1.08889" topologyKind="BUS_BREAKER">
            <iidm:busBreakerTopology>
                <iidm:bus id="BUS-64" v="1.05467311" angle="-22.3706653"/>
            </iidm:busBreakerTopology>
            <iidm:generator id="GEN-64" energySource="OTHER" minP="0.0" maxP="24.0" ratedS="100.0" voltageRegulatorOn="true" targetP="0.0" targetV="1.056" targetQ="0.0" connectableBus="BUS-64">
                <iidm:minMaxReactiveLimits minQ="0.0" maxQ="0.0"/>
            </iidm:generator>
            <iidm:generator id="GEN-64#0" energySource="OTHER" minP="0.0" maxP="27.6" ratedS="100.0" voltageRegulatorOn="true" targetP="0.0" targetV="1.056" targetQ="0.0" connectableBus="BUS-64">
                <iidm:minMaxReactiveLimits minQ="0.0" maxQ="0.0"/>
            </iidm:generator>
            <iidm:load id="LOAD-64" loadType="UNDEFINED" p0="67.3" q0="7.1" bus="BUS-64" connectableBus="BUS-64"/>
        </iidm:voltageLevel>
    </iidm:substation>
    <iidm:substation id="SUB-65">
        <iidm:voltageLevel id="VL-65" nominalV="1.0" lowVoltageLimit="0.952381" highVoltageLimit="1.07937" topologyKind="BUS_BREAKER">
            <iidm:busBreakerTopology>
                <iidm:bus id="BUS-65" v="1.04688113" angle="-12.1924535"/>
            </iidm:busBreakerTopology>
            <iidm:load id="LOAD-65" loadType="UNDEFINED" p0="12.0" q0="2.8" bus="BUS-65" connectableBus="BUS-65"/>
        </iidm:voltageLevel>
    </iidm:substation>
    <iidm:substation id="SUB-66">
        <iidm:voltageLevel id="VL-66" nominalV="1.0" lowVoltageLimit="0.936508" highVoltageLimit="1.06349" topologyKind="BUS_BREAKER">
            <iidm:busBreakerTopology>
                <iidm:bus id="BUS-66" v="1.02707223" angle="-27.7656942"/>
            </iidm:busBreakerTopology>
            <iidm:load id="LOAD-66" loadType="UNDEFINED" p0="13.0" q0="-6.4" bus="BUS-66" connectableBus="BUS-66"/>
        </iidm:voltageLevel>
    </iidm:substation>
    <iidm:substation id="SUB-67">
        <iidm:voltageLevel id="VL-67" nominalV="1.0" lowVoltageLimit="0.920635" highVoltageLimit="1.07937" topologyKind="BUS_BREAKER">
            <iidm:busBreakerTopology>
                <iidm:bus id="BUS-67" v="1.03945348" angle="-23.5570146"/>
            </iidm:busBreakerTopology>
            <iidm:load id="LOAD-67" loadType="UNDEFINED" p0="1.0" q0="0.0" bus="BUS-67" connectableBus="BUS-67"/>
        </iidm:voltageLevel>
    </iidm:substation>
    <iidm:substation id="SUB-68">
        <iidm:voltageLevel id="VL-68" nominalV="1.0" lowVoltageLimit="0.936508" highVoltageLimit="1.06349" topologyKind="BUS_BREAKER">
            <iidm:busBreakerTopology>
                <iidm:bus id="BUS-68" v="1.01382383" angle="-17.068817"/>
            </iidm:busBreakerTopology>
            <iidm:load id="LOAD-68" loadType="UNDEFINED" p0="53.1" q0="1.1" bus="BUS-68" connectableBus="BUS-68"/>
        </iidm:voltageLevel>
    </iidm:substation>
    <iidm:substation id="SUB-69">
        <iidm:voltageLevel id="VL-69" nominalV="1.0" lowVoltageLimit="0.952381" highVoltageLimit="1.06349" topologyKind="BUS_BREAKER">
            <iidm:busBreakerTopology>
                <iidm:bus id="BUS-69" v="1.04182792" angle="-62.4588387"/>
            </iidm:busBreakerTopology>
            <iidm:generator id="GEN-69" energySource="OTHER" minP="0.0" maxP="30.04" ratedS="100.0" voltageRegulatorOn="true" targetP="0.0" targetV="1.045" targetQ="0.0" connectableBus="BUS-69">
                <iidm:minMaxReactiveLimits minQ="0.0" maxQ="0.0"/>
            </iidm:generator>
            <iidm:load id="LOAD-69" loadType="UNDEFINED" p0="20.8" q0="1.3" bus="BUS-69" connectableBus="BUS-69"/>
        </iidm:voltageLevel>
    </iidm:substation>
    <iidm:substation id="SUB-70">
        <iidm:voltageLevel id="VL-70" nominalV="1.0" lowVoltageLimit="0.952381" highVoltageLimit="1.07937" topologyKind="BUS_BREAKER">
            <iidm:busBreakerTopology>
                <iidm:bus id="BUS-70" v="1.02517777" angle="-2.58318588"/>
            </iidm:busBreakerTopology>
            <iidm:generator id="GEN-70" energySource="OTHER" minP="0.0" maxP="23.0" ratedS="100.0" voltageRegulatorOn="true" targetP="0.0" targetV="1.026" targetQ="0.0" connectableBus="BUS-70">
                <iidm:minMaxReactiveLimits minQ="0.0" maxQ="0.0"/>
            </iidm:generator>
            <iidm:load id="LOAD-70" loadType="UNDEFINED" p0="10.6" q0="4.2" bus="BUS-70" connectableBus="BUS-70"/>
        </iidm:voltageLevel>
    </iidm:substation>
    <iidm:substation id="SUB-71">
        <iidm:voltageLevel id="VL-71" nominalV="1.0" lowVoltageLimit="0.952381" highVoltageLimit="1.04762" topologyKind="BUS_BREAKER">
            <iidm:busBreakerTopology>
                <iidm:bus id="BUS-71" v="1.00979621" angle="-33.3578345"/>
            </iidm:busBreakerTopology>
            <iidm:load id="LOAD-71" loadType="UNDEFINED" p0="69.4" q0="17.5" bus="BUS-71" connectableBus="BUS-71"/>
        </iidm:voltageLevel>
    </iidm:substation>
    <iidm:substation id="SUB-72">
        <iidm:voltageLevel id="VL-72" nominalV="1.0" lowVoltageLimit="1.00444" highVoltageLimit="1.08889" topologyKind="BUS_BREAKER">
            <iidm:busBreakerTopology>
                <iidm:bus id="BUS-72" v="1.07727637" angle="-26.6245331"/>
                <iidm:bus id="BUS-6326" v="0.983" angle="-24.2605614"/>
            </iidm:busBreakerTopology>
            <iidm:generator id="GEN-6326" energySource="OTHER" minP="8.5" maxP="125.0" ratedS="100.0" voltageRegulatorOn="true" targetP="64.04" targetV="0.983" targetQ="0.96" bus="BUS-6326" connectableBus="BUS-6326">
                <iidm:minMaxReactiveLimits minQ="-50.9" maxQ="93.6"/>
            </iidm:generator>
            <iidm:load id="LOAD-6326" loadType="UNDEFINED" p0="3.5" q0="2.2" bus="BUS-6326" connectableBus="BUS-6326"/>
        </iidm:voltageLevel>
        <iidm:twoWindingsTransformer id="TWT-72-6326" r="0.0" x="6.579E-4" g="0.0" b="0.0" ratedU1="1.096667" ratedU2="1.0" voltageLevelId1="VL-72" bus1="BUS-72" connectableBus1="BUS-72" voltageLevelId2="VL-72" bus2="BUS-6326" connectableBus2="BUS-6326"/>
    </iidm:substation>
    <iidm:substation id="SUB-73">
        <iidm:voltageLevel id="VL-73" nominalV="1.0" lowVoltageLimit="1.00444" highVoltageLimit="1.08889" topologyKind="BUS_BREAKER">
            <iidm:busBreakerTopology>
                <iidm:bus id="BUS-73" v="1.07728775" angle="-26.6238384"/>
                <iidm:bus id="BUS-6325" v="0.984" angle="-24.184233"/>
            </iidm:busBreakerTopology>
            <iidm:generator id="GEN-6325" energySource="OTHER" minP="8.5" maxP="125.0" ratedS="100.0" voltageRegulatorOn="true" targetP="66.04" targetV="0.984" targetQ="2.79" bus="BUS-6325" connectableBus="BUS-6325">
                <iidm:minMaxReactiveLimits minQ="-50.9" maxQ="93.6"/>
            </iidm:generator>
            <iidm:load id="LOAD-6325" loadType="UNDEFINED" p0="3.5" q0="2.2" bus="BUS-6325" connectableBus="BUS-6325"/>
        </iidm:voltageLevel>
        <iidm:twoWindingsTransformer id="TWT-73-6325" r="0.0" x="6.579E-4" g="0.0" b="0.0" ratedU1="1.096667" ratedU2="1.0" voltageLevelId1="VL-73" bus1="BUS-73" connectableBus1="BUS-73" voltageLevelId2="VL-73" bus2="BUS-6325" connectableBus2="BUS-6325"/>
    </iidm:substation>
    <iidm:substation id="SUB-74">
        <iidm:voltageLevel id="VL-74" nominalV="1.0" lowVoltageLimit="0.888889" highVoltageLimit="1.08889" topologyKind="BUS_BREAKER">
            <iidm:busBreakerTopology>
                <iidm:bus id="BUS-74" v="1.05521642" angle="-22.2096659"/>
            </iidm:busBreakerTopology>
            <iidm:load id="LOAD-74" loadType="UNDEFINED" p0="58.8" q0="-5.0" bus="BUS-74" connectableBus="BUS-74"/>
        </iidm:voltageLevel>
    </iidm:substation>
    <iidm:substation id="SUB-75">
        <iidm:voltageLevel id="VL-75" nominalV="1.0" lowVoltageLimit="0.977778" highVoltageLimit="1.06667" topologyKind="BUS_BREAKER">
            <iidm:busBreakerTopology>
                <iidm:bus id="BUS-75" v="1.03831803" angle="-25.8993445"/>
            </iidm:busBreakerTopology>
            <iidm:load id="LOAD-75" loadType="UNDEFINED" p0="25.2" q0="1.9" bus="BUS-75" connectableBus="BUS-75"/>
        </iidm:voltageLevel>
    </iidm:substation>
    <iidm:substation id="SUB-76">
        <iidm:voltageLevel id="VL-76" nominalV="1.0" lowVoltageLimit="0.986667" highVoltageLimit="1.08889" topologyKind="BUS_BREAKER">
            <iidm:busBreakerTopology>
                <iidm:bus id="BUS-76" v="1.07673551" angle="-0.737800075"/>
            </iidm:busBreakerTopology>
            <iidm:load id="LOAD-76" loadType="UNDEFINED" p0="5.9" q0="-2.1" bus="BUS-76" connectableBus="BUS-76"/>
        </iidm:voltageLevel>
    </iidm:substation>
    <iidm:substation id="SUB-77">
        <iidm:voltageLevel id="VL-77" nominalV="1.0" lowVoltageLimit="0.936508" highVoltageLimit="1.06349" topologyKind="BUS_BREAKER">
            <iidm:busBreakerTopology>
                <iidm:bus id="BUS-77" v="1.01539346" angle="-18.6809907"/>
            </iidm:busBreakerTopology>
            <iidm:load id="LOAD-77" loadType="UNDEFINED" p0="43.7" q0="0.4" bus="BUS-77" connectableBus="BUS-77"/>
        </iidm:voltageLevel>
    </iidm:substation>
    <iidm:substation id="SUB-78">
        <iidm:voltageLevel id="VL-78" nominalV="1.0" lowVoltageLimit="0.920635" highVoltageLimit="1.07937" topologyKind="BUS_BREAKER">
            <iidm:busBreakerTopology>
                <iidm:bus id="BUS-78" v="1.03810449" angle="-26.0425496"/>
            </iidm:busBreakerTopology>
        </iidm:voltageLevel>
    </iidm:substation>
    <iidm:substation id="SUB-79">
        <iidm:voltageLevel id="VL-79" nominalV="1.0" lowVoltageLimit="0.952381" highVoltageLimit="1.04762" topologyKind="BUS_BREAKER">
            <iidm:busBreakerTopology>
                <iidm:bus id="BUS-79" v="1.00480897" angle="-32.1704872"/>
            </iidm:busBreakerTopology>
        </iidm:voltageLevel>
    </iidm:substation>
    <iidm:substation id="SUB-80">
        <iidm:voltageLevel id="VL-80" nominalV="1.0" lowVoltageLimit="1.00444" highVoltageLimit="1.08889" topologyKind="BUS_BREAKER">
            <iidm:busBreakerTopology>
                <iidm:bus id="BUS-80" v="1.03513924" angle="-31.7118517"/>
            </iidm:busBreakerTopology>
            <iidm:load id="LOAD-80" loadType="UNDEFINED" p0="32.4" q0="10.5" bus="BUS-80" connectableBus="BUS-80"/>
        </iidm:voltageLevel>
    </iidm:substation>
    <iidm:substation id="SUB-81">
        <iidm:voltageLevel id="VL-81" nominalV="1.0" lowVoltageLimit="1.00444" highVoltageLimit="1.08889" topologyKind="BUS_BREAKER">
            <iidm:busBreakerTopology>
                <iidm:bus id="BUS-81" v="1.03515795" angle="-31.7118034"/>
            </iidm:busBreakerTopology>
            <iidm:load id="LOAD-81" loadType="UNDEFINED" p0="32.4" q0="9.1" bus="BUS-81" connectableBus="BUS-81"/>
        </iidm:voltageLevel>
    </iidm:substation>
    <iidm:substation id="SUB-82">
        <iidm:voltageLevel id="VL-82" nominalV="1.0" lowVoltageLimit="0.936508" highVoltageLimit="1.06349" topologyKind="BUS_BREAKER">
            <iidm:busBreakerTopology>
                <iidm:bus id="BUS-82" v="1.02513848" angle="-19.7466558"/>
            </iidm:busBreakerTopology>
            <iidm:load id="LOAD-82" loadType="UNDEFINED" p0="11.3" q0="0.3" bus="BUS-82" connectableBus="BUS-82"/>
        </iidm:voltageLevel>
    </iidm:substation>
    <iidm:substation id="SUB-83">
        <iidm:voltageLevel id="VL-83" nominalV="1.0" lowVoltageLimit="1.00444" highVoltageLimit="1.08889" topologyKind="BUS_BREAKER">
            <iidm:busBreakerTopology>
                <iidm:bus id="BUS-83" v="1.04529914" angle="-32.2878169"/>
            </iidm:busBreakerTopology>
            <iidm:load id="LOAD-83" loadType="UNDEFINED" p0="79.0" q0="24.8" bus="BUS-83" connectableBus="BUS-83"/>
        </iidm:voltageLevel>
    </iidm:substation>
    <iidm:substation id="SUB-84">
        <iidm:voltageLevel id="VL-84" nominalV="1.0" lowVoltageLimit="0.936508" highVoltageLimit="1.06349" topologyKind="BUS_BREAKER">
            <iidm:busBreakerTopology>
                <iidm:bus id="BUS-84" v="1.01622729" angle="-14.3105965"/>
            </iidm:busBreakerTopology>
            <iidm:load id="LOAD-84" loadType="UNDEFINED" p0="-0.1" q0="0.4" bus="BUS-84" connectableBus="BUS-84"/>
        </iidm:voltageLevel>
    </iidm:substation>
    <iidm:substation id="SUB-85">
        <iidm:voltageLevel id="VL-85" nominalV="1.0" lowVoltageLimit="0.936508" highVoltageLimit="1.06349" topologyKind="BUS_BREAKER">
            <iidm:busBreakerTopology>
                <iidm:bus id="BUS-85" v="1.04080844" angle="-18.1005924"/>
            </iidm:busBreakerTopology>
            <iidm:generator id="GEN-85" energySource="OTHER" minP="0.0" maxP="6.68" ratedS="100.0" voltageRegulatorOn="true" targetP="0.0" targetV="1.042" targetQ="0.0" connectableBus="BUS-85">
                <iidm:minMaxReactiveLimits minQ="0.0" maxQ="0.0"/>
            </iidm:generator>
            <iidm:load id="LOAD-85" loadType="UNDEFINED" p0="0.7" q0="-1.5" bus="BUS-85" connectableBus="BUS-85"/>
        </iidm:voltageLevel>
    </iidm:substation>
    <iidm:substation id="SUB-86">
        <iidm:voltageLevel id="VL-86" nominalV="1.0" lowVoltageLimit="0.977778" highVoltageLimit="1.06667" topologyKind="BUS_BREAKER">
            <iidm:busBreakerTopology>
                <iidm:bus id="BUS-86" v="1.01614449" angle="-49.9270109"/>
            </iidm:busBreakerTopology>
            <iidm:generator id="GEN-86" energySource="OTHER" minP="0.0" maxP="9.2" ratedS="100.0" voltageRegulatorOn="true" targetP="0.0" targetV="1.019" targetQ="0.0" connectableBus="BUS-86">
                <iidm:minMaxReactiveLimits minQ="0.0" maxQ="0.0"/>
            </iidm:generator>
            <iidm:load id="LOAD-86" loadType="UNDEFINED" p0="48.8" q0="5.2" bus="BUS-86" connectableBus="BUS-86"/>
        </iidm:voltageLevel>
    </iidm:substation>
    <iidm:substation id="SUB-87">
        <iidm:voltageLevel id="VL-87" nominalV="1.0" lowVoltageLimit="0.952381" highVoltageLimit="1.07937" topologyKind="BUS_BREAKER">
            <iidm:busBreakerTopology>
                <iidm:bus id="BUS-87" v="1.02330517" angle="-4.28707361"/>
            </iidm:busBreakerTopology>
        </iidm:voltageLevel>
    </iidm:substation>
    <iidm:substation id="SUB-88">
        <iidm:voltageLevel id="VL-88" nominalV="1.0" lowVoltageLimit="0.936508" highVoltageLimit="1.06349" topologyKind="BUS_BREAKER">
            <iidm:busBreakerTopology>
                <iidm:bus id="BUS-88" v="1.03614098" angle="-22.0451103"/>
            </iidm:busBreakerTopology>
            <iidm:load id="LOAD-88" loadType="UNDEFINED" p0="14.8" q0="-1.2" bus="BUS-88" connectableBus="BUS-88"/>
        </iidm:voltageLevel>
    </iidm:substation>
    <iidm:substation id="SUB-89">
        <iidm:voltageLevel id="VL-89" nominalV="1.0" lowVoltageLimit="0.977778" highVoltageLimit="1.07778" topologyKind="BUS_BREAKER">
            <iidm:busBreakerTopology>
                <iidm:bus id="BUS-89" v="1.02844336" angle="-35.7613286"/>
            </iidm:busBreakerTopology>
...